|COLIGADA0=CASA
|COLIGADA1=LONDRINAI
|COLIGADA2=LONDRINAII
|COLIGADA3=MARINGA
|COLIGADA4=CIDADEDUTRA
|COLIGADA5=SAOROQUE
|COLIGADA6=PATROCINIO
|COLIGADA7=LARANJEIRAS
|COLIGADA8=ROLANDIA
|COLIGADA9=BELAVISTAGO
|COLIGADA10=BUENO
|COLIGADA11=JATAI
|COLIGADA12=UBERABA
|COLIGADA13=UBERLANDIA
|COLIGADA14=CIANORTE
|COLIGADA15=JDBELAVISTA
|COLIGADA16=PINHEIROS2
|COLIGADA17=TELEMACOBORBA
|COLIGADA18=BALNEARIOCAMBORIU
|COLIGADA19=CATETE
|COLIGADA20=LEBLON
|COLIGADA21=FLORIPACENTRO
|COLIGADA22=COQUEIROS
|COLIGADA23=SANTAMONICA
|COLIGADA24=KOBRASOL
|COLIGADA25=TIRADENTES
|COLIGADA26=COPACABANA1
|COLIGADA27=FREGUESIA
|COLIGADA28=GUARATINGUETA
|