|COLIGADA0=CASA
|COLIGADA1=FREGUESIA
|COLIGADA2=COPACABANA1
|COLIGADA3=CIDADEDUTRA
|COLIGADA4=SAOROQUE
|COLIGADA5=PATROCINIO
|COLIGADA6=LARANJEIRAS
|COLIGADA7=IPANEMA
|COLIGADA8=ROLANDIA
|COLIGADA9=BELAVISTAGO
|COLIGADA10=BUENO
|COLIGADA11=JATAI
|COLIGADA12=UBERABA
|COLIGADA13=UBERLANDIA
|COLIGADA14=TELEMACOBORBA
|COLIGADA15=BALNEARIOCAMBORIU
|COLIGADA16=CATETE
|COLIGADA17=LEBLON
|COLIGADA18=TIRADENTES
|COLIGADA19=GUARATINGUETA
